/batch
/config,noeldb,1     ! force off writing results to database
*get,_wallstrt,active,,time,wall
! ANSYS input file written by Workbench version 2019 R3
! File used for geometry attach: D:\20131a0332\Ex-3 332\conduction_files\dp0\SYS\DM\SYS.agdb
/title,conduction--Steady-State Thermal (A5)
*DIM,_wb_ProjectScratch_dir,string,248
_wb_ProjectScratch_dir(1) = 'D:\20131a0332\Ex-3 332\_ProjectScratch\Scr3765\'
*DIM,_wb_SolverFiles_dir,string,248
_wb_SolverFiles_dir(1) = 'D:\20131a0332\Ex-3 332\conduction_files\dp0\SYS\MECH\'
*DIM,_wb_userfiles_dir,string,248
_wb_userfiles_dir(1) = 'D:\20131a0332\Ex-3 332\conduction_files\user_files\'
/com,--- Data in consistent MKS units. See Solving Units in the help system for more information.
/units,MKS
/nopr
/wb,file,start              !  signify a WB generated input file
/prep7
! Turn off shape checking because checks already performed inside WB mesher.
! See help system for more information.
SHPP,OFF,,NOWARN
/nolist
etcon,set             ! allow ANSYS to choose best KEYOP's for 180x elements
/com,*********** Nodes for the whole assembly ***********
nblock,3,,23410
(1i9,3e20.9e3)
        1     1.800000000E-01     2.000000000E-02     1.537500000E-01
        2     1.800000000E-01     2.000000000E-02     1.725000000E-01
        3     1.800000000E-01     2.000000000E-02     1.912500000E-01
        4     1.600000000E-01     2.000000000E-02     1.537500000E-01
        5     1.600000000E-01     2.000000000E-02     1.725000000E-01
        6     1.600000000E-01     2.000000000E-02     1.912500000E-01
        7     1.400000000E-01     2.000000000E-02     1.537500000E-01
        8     1.400000000E-01     2.000000000E-02     1.725000000E-01
        9     1.400000000E-01     2.000000000E-02     1.912500000E-01
       10     1.200000000E-01     2.000000000E-02     1.537500000E-01
       11     1.200000000E-01     2.000000000E-02     1.725000000E-01
       12     1.200000000E-01     2.000000000E-02     1.912500000E-01
       13     1.000000000E-01     2.000000000E-02     1.537500000E-01
       14     1.000000000E-01     2.000000000E-02     1.725000000E-01
       15     1.000000000E-01     2.000000000E-02     1.912500000E-01
       16     8.000000000E-02     2.000000000E-02     1.537500000E-01
       17     8.000000000E-02     2.000000000E-02     1.725000000E-01
       18     8.000000000E-02     2.000000000E-02     1.912500000E-01
       19     6.000000000E-02     2.000000000E-02     1.537500000E-01
       20     6.000000000E-02     2.000000000E-02     1.725000000E-01
! ... 21263 like lines cut
/wb,elem,start            !  set before creation of elements
/com,*********** Elements for Body 1 "Fire Brick" ***********
et,1,90
eblock,19,solid,,1750
(19i9)
        1        1        1        1        0        0        0        0       20        0     2501    12713    14786    14757    14693    14224    14907    14756    14755
    15006    20838    20721    15005    19767    20836    20834    19766    15004    20919    20835    20720
        1        1        1        1        0        0        0        0       20        0     2502    12713    14693    14757    14786    12714    14702    14758    14810
    15005    20721    20838    15006    15010    20747    20840    15011    15001    20719    20837    20918
        1        1        1        1        0        0        0        0       20        0     2503    12714    14702    14758    14810    12715    14711    14759    14834
    15010    20747    20840    15011    15015    20765    20842    15016    15007    20746    20839    20967
        1        1        1        1        0        0        0        0       20        0     2504    12715    14711    14759    14834    12716    14720    14760    14858
    15015    20765    20842    15016    15020    20783    20844    15021    15012    20764    20841    21015
        1        1        1        1        0        0        0        0       20        0     2505    12716    14720    14760    14858    12717    14729    14761    14882
    15020    20783    20844    15021    15025    20801    20846    15026    15017    20782    20843    21063
        1        1        1        1        0        0        0        0       20        0     2506    12717    14729    14761    14882    12718    14738    14762    14906
    15025    20801    20846    15026    15030    20818    20847    15031    15022    20800    20845    21111
        1        1        1        1        0        0        0        0       20        0     2507    12718    14738    14762    14906    14225    14476    14475    14474
    15030    20818    20847    15031    19771    20302    20300    19770    15029    20305    20303    20301
        1        1        1        1        0        0        0        0       20        0     2508    12713    12767    14785    14786    14224    14215    14908    14907
    15003    15236    20915    15006    19747    19748    21136    19767    15004    15235    20917    20919
        1        1        1        1        0        0        0        0       20        0     2509    12713    14786    14785    12767    12714    14810    14809    12768
    15006    20915    15236    15003    15011    20965    15240    15009    15001    20918    20916    15232
        1        1        1        1        0        0        0        0       20        0     2510    12714    14810    14809    12768    12715    14834    14833    12769
    15011    20965    15240    15009    15016    21013    15244    15014    15007    20967    20966    15237
! ... 3481 like lines cut
!Material Id = {A57712B1-CD45-4905-9BFD-1D3FE46A91B6}
/com,*********** Elements for Body 2 "Insulating Brick" ***********
et,2,90
eblock,19,solid,,1000
(19i9)
        2        2        2        2        0        0        0        0       20        0        1        1     1318     1292     1255      864     1367     1291     1290
     1436     5012     4949     1435     4154     5010     5008     4153     1434     5087     5009     4948
        2        2        2        2        0        0        0        0       20        0        2        1     1255     1292     1318        2     1264     1293     1342
     1435     4949     5012     1436     1440     4975     5014     1441     1431     4947     5011     5086
        2        2        2        2        0        0        0        0       20        0        3        2     1264     1293     1342        3     1273     1294     1366
     1440     4975     5014     1441     1445     4992     5015     1446     1437     4974     5013     5135
        2        2        2        2        0        0        0        0       20        0        4        3     1273     1294     1366      865     1116     1115     1114
     1445     4992     5015     1446     4158     4689     4687     4157     1444     4692     4690     4688
        2        2        2        2        0        0        0        0       20        0        5        1       28     1317     1318      864      855     1368     1367
     1433     1555     5083     1436     4134     4135     5160     4154     1434     1554     5085     5087
        2        2        2        2        0        0        0        0       20        0        6        1     1318     1317       28        2     1342     1341       29
     1436     5083     1555     1433     1441     5133     1559     1439     1431     5086     5084     1551
        2        2        2        2        0        0        0        0       20        0        7        2     1342     1341       29        3     1366     1365       30
     1441     5133     1559     1439     1446     5159     1563     1443     1437     5135     5134     1556
        2        2        2        2        0        0        0        0       20        0        8        3     1366     1365       30      865     1114     1113      874
     1446     5159     1563     1443     4157     4685     4185     4156     1444     4688     4686     1562
        2        2        2        2        0        0        0        0       20        0        9       28       55     1316     1317      855      846     1369     1368
     1553     1648     5080     1555     4115     4116     5161     4135     1554     1647     5082     5085
        2        2        2        2        0        0        0        0       20        0       10       28     1317     1316       55       29     1341     1340       56
     1555     5080     1648     1553     1559     5131     1652     1558     1551     5084     5081     1644
! ... 1981 like lines cut
!Material Id = {05258B70-7E4B-479A-AC86-825051217659}
/com,*********** Elements for Body 3 "Red Brick" ***********
et,3,90
eblock,19,solid,,1500
(19i9)
        3        3        3        3        0        0        0        0       20        0     1001     5250     7071     7043     6988     6545     7168     7042     7041
     7257    12337    12238     7256    11337    12335    12333    11336     7255    12416    12334    12237
        3        3        3        3        0        0        0        0       20        0     1002     5250     6988     7043     7071     5251     6997     7044     7095
     7256    12238    12337     7257     7261    12264    12339     7262     7252    12236    12336    12415
        3        3        3        3        0        0        0        0       20        0     1003     5251     6997     7044     7095     5252     7006     7045     7119
     7261    12264    12339     7262     7266    12282    12341     7267     7258    12263    12338    12464
        3        3        3        3        0        0        0        0       20        0     1004     5252     7006     7045     7119     5253     7015     7046     7143
     7266    12282    12341     7267     7271    12300    12343     7272     7263    12281    12340    12512
        3        3        3        3        0        0        0        0       20        0     1005     5253     7015     7046     7143     5254     7024     7047     7167
     7271    12300    12343     7272     7276    12317    12344     7277     7268    12299    12342    12560
        3        3        3        3        0        0        0        0       20        0     1006     5254     7024     7047     7167     6546     6797     6796     6795
     7276    12317    12344     7277    11341    11872    11870    11340     7275    11875    11873    11871
        3        3        3        3        0        0        0        0       20        0     1007     5250     5295     7070     7071     6545     6536     7169     7168
     7254     7450    12412     7257    11317    11318    12585    11337     7255     7449    12414    12416
        3        3        3        3        0        0        0        0       20        0     1008     5250     7071     7070     5295     5251     7095     7094     5296
     7257    12412     7450     7254     7262    12462     7454     7260     7252    12415    12413     7446
        3        3        3        3        0        0        0        0       20        0     1009     5251     7095     7094     5296     5252     7119     7118     5297
     7262    12462     7454     7260     7267    12510     7458     7265     7258    12464    12463     7451
        3        3        3        3        0        0        0        0       20        0     1010     5252     7119     7118     5297     5253     7143     7142     5298
     7267    12510     7458     7265     7272    12558     7462     7270     7263    12512    12511     7455
! ... 2981 like lines cut
!Material Id = {BC95DF98-D98D-42CF-9BA6-4AD4B7FD7637}
/wb,elem,end               !  done creating elements
/com,*********** Send User Defined Coordinate System(s) ***********
csys,0
toffst,273.15,  ! Temperature offset from absolute zero
/wb,mat,start              !  starting to send materials
/com,*********** Send Materials ***********
MP,KXX,1,1.2,	! W m^-1 C^-1

MP,KXX,2,0.14,	! W m^-1 C^-1

MP,KXX,3,0.85,	! W m^-1 C^-1

/wb,mat,end                !  done sending materials
!************************* Model Summary ********************
!Fire Brick,	Fire Brick,	matid,	1
!Insulating Brick,	Insulating Brick,	matid,	2
!Red Brick,	Red Brick,	matid,	3
!************************* End Model Summary ********************
! get the diagonal of the bounding box. Needed later for other things
*get,_xmin,node,,mnloc,x
*get,_ymin,node,,mnloc,y
*get,_zmin,node,,mnloc,z
*get,_xmax,node,,mxloc,x
*get,_ymax,node,,mxloc,y
*get,_zmax,node,,mxloc,z
_ASMDIAG=(_xmax-_xmin)*(_xmax-_xmin)+(_ymax-_ymin)*(_ymax-_ymin)+(_zmax-_zmin)*(_zmax-_zmin)
_ASMDIAG=SQRT(_ASMDIAG)
/wb,contact,start          !  starting to send contact
/com,*********** Create Contact "Contact Region" ***********
/com,            Real Constant Set For Above Contact Is 5 & 4 
*set,tid,5
*set,cid,4
r,tid
r,cid
et,tid,170
et,cid,174
eblock,10,,,250
(15i9)
     6941        5        5        5        0    14474    14225    14476    14475    19770    19771    20302    20300
     6942        5        5        5        0    14473    14234    14225    14474    19798    19769    19770    20298
     6943        5        5        5        0    14472    14243    14234    14473    19817    19797    19798    20296
     6944        5        5        5        0    14471    14252    14243    14472    19836    19816    19817    20294
     6945        5        5        5        0    14470    14261    14252    14471    19855    19835    19836    20292
     6946        5        5        5        0    14469    14270    14261    14470    19874    19854    19855    20290
     6947        5        5        5        0    14468    14279    14270    14469    19893    19873    19874    20288
     6948        5        5        5        0    14467    14288    14279    14468    19912    19892    19893    20286
     6949        5        5        5        0    14466    14297    14288    14467    19931    19911    19912    20284
     6950        5        5        5        0    14465    14306    14297    14466    19950    19930    19931    20282
     6951        5        5        5        0    14464    14315    14306    14465    19969    19949    19950    20280
     6952        5        5        5        0    14463    14324    14315    14464    19988    19968    19969    20278
     6953        5        5        5        0    14462    14333    14324    14463    20007    19987    19988    20276
     6954        5        5        5        0    14461    14342    14333    14462    20026    20006    20007    20274
     6955        5        5        5        0    14460    14351    14342    14461    20045    20025    20026    20272
     6956        5        5        5        0    14459    14360    14351    14460    20064    20044    20045    20270
     6957        5        5        5        0    14458    14369    14360    14459    20083    20063    20064    20268
     6958        5        5        5        0    14457    14378    14369    14458    20102    20082    20083    20266
     6959        5        5        5        0    14456    14387    14378    14457    20121    20101    20102    20264
     6960        5        5        5        0    14455    14396    14387    14456    20140    20120    20121    20262
! ... 231 like lines cut
eblock,10,,,250
(15i9)
     7191        4        4        4        0    14474    14225    14476    14475    19770    19771    20302    20300
     7192        4        4        4        0    14473    14234    14225    14474    19798    19769    19770    20298
     7193        4        4        4        0    14472    14243    14234    14473    19817    19797    19798    20296
     7194        4        4        4        0    14471    14252    14243    14472    19836    19816    19817    20294
     7195        4        4        4        0    14470    14261    14252    14471    19855    19835    19836    20292
     7196        4        4        4        0    14469    14270    14261    14470    19874    19854    19855    20290
     7197        4        4        4        0    14468    14279    14270    14469    19893    19873    19874    20288
     7198        4        4        4        0    14467    14288    14279    14468    19912    19892    19893    20286
     7199        4        4        4        0    14466    14297    14288    14467    19931    19911    19912    20284
     7200        4        4        4        0    14465    14306    14297    14466    19950    19930    19931    20282
     7201        4        4        4        0    14464    14315    14306    14465    19969    19949    19950    20280
     7202        4        4        4        0    14463    14324    14315    14464    19988    19968    19969    20278
     7203        4        4        4        0    14462    14333    14324    14463    20007    19987    19988    20276
     7204        4        4        4        0    14461    14342    14333    14462    20026    20006    20007    20274
     7205        4        4        4        0    14460    14351    14342    14461    20045    20025    20026    20272
     7206        4        4        4        0    14459    14360    14351    14460    20064    20044    20045    20270
     7207        4        4        4        0    14458    14369    14360    14459    20083    20063    20064    20268
     7208        4        4        4        0    14457    14378    14369    14458    20102    20082    20083    20266
     7209        4        4        4        0    14456    14387    14378    14457    20121    20101    20102    20264
     7210        4        4        4        0    14455    14396    14387    14456    20140    20120    20121    20262
! ... 231 like lines cut
eblock,10,,,250
(15i9)
     7441        4        5        4        0     1290      864     1367     1291     4153     4154     5010     5008
     7442        4        5        4        0      864      855     1368     1367     4134     4135     5160     4154
     7443        4        5        4        0      855      846     1369     1368     4115     4116     5161     4135
     7444        4        5        4        0      846      837     1370     1369     4096     4097     5162     4116
     7445        4        5        4        0      837      828     1371     1370     4077     4078     5163     4097
     7446        4        5        4        0      828      819     1372     1371     4058     4059     5164     4078
     7447        4        5        4        0      819      810     1373     1372     4039     4040     5165     4059
     7448        4        5        4        0      810      801     1374     1373     4020     4021     5166     4040
     7449        4        5        4        0      801      792     1375     1374     4001     4002     5167     4021
     7450        4        5        4        0      792      783     1376     1375     3982     3983     5168     4002
     7451        4        5        4        0      783      774     1377     1376     3963     3964     5169     3983
     7452        4        5        4        0      774      765     1378     1377     3944     3945     5170     3964
     7453        4        5        4        0      765      756     1379     1378     3925     3926     5171     3945
     7454        4        5        4        0      756      747     1380     1379     3906     3907     5172     3926
     7455        4        5        4        0      747      738     1381     1380     3887     3888     5173     3907
     7456        4        5        4        0      738      729     1382     1381     3868     3869     5174     3888
     7457        4        5        4        0      729      720     1383     1382     3849     3850     5175     3869
     7458        4        5        4        0      720      711     1384     1383     3830     3831     5176     3850
     7459        4        5        4        0      711      702     1385     1384     3811     3812     5177     3831
     7460        4        5        4        0      702      693     1386     1385     3792     3793     5178     3812
! ... 231 like lines cut
eblock,10,,,250
(15i9)
     7691        5        4        5        0     1290      864     1367     1291     4153     4154     5010     5008
     7692        5        4        5        0      864      855     1368     1367     4134     4135     5160     4154
     7693        5        4        5        0      855      846     1369     1368     4115     4116     5161     4135
     7694        5        4        5        0      846      837     1370     1369     4096     4097     5162     4116
     7695        5        4        5        0      837      828     1371     1370     4077     4078     5163     4097
     7696        5        4        5        0      828      819     1372     1371     4058     4059     5164     4078
     7697        5        4        5        0      819      810     1373     1372     4039     4040     5165     4059
     7698        5        4        5        0      810      801     1374     1373     4020     4021     5166     4040
     7699        5        4        5        0      801      792     1375     1374     4001     4002     5167     4021
     7700        5        4        5        0      792      783     1376     1375     3982     3983     5168     4002
     7701        5        4        5        0      783      774     1377     1376     3963     3964     5169     3983
     7702        5        4        5        0      774      765     1378     1377     3944     3945     5170     3964
     7703        5        4        5        0      765      756     1379     1378     3925     3926     5171     3945
     7704        5        4        5        0      756      747     1380     1379     3906     3907     5172     3926
     7705        5        4        5        0      747      738     1381     1380     3887     3888     5173     3907
     7706        5        4        5        0      738      729     1382     1381     3868     3869     5174     3888
     7707        5        4        5        0      729      720     1383     1382     3849     3850     5175     3869
     7708        5        4        5        0      720      711     1384     1383     3830     3831     5176     3850
     7709        5        4        5        0      711      702     1385     1384     3811     3812     5177     3831
     7710        5        4        5        0      702      693     1386     1385     3792     3793     5178     3812
! ... 231 like lines cut
keyo,cid,8,2               ! auto create asymmetric contact (from Program Controlled setting)
keyo,cid,10,0              ! adjust contact stiffness each NR iteration (from Program Controlled setting)
keyo,cid,12,5              ! bonded always
keyo,cid,18,1              ! small sliding turned on by application
keyo,cid,2,0               ! augmented Lagrange (from Program Controlled setting)
keyo,cid,4,0               ! on Gauss point (from Program Controlled setting)
keyo,cid,9,1               ! ignore initial gaps/penetration
keyo,cid,7,0               ! No Prediction
rmod,tid,3,10.      ! FKN
rmod,tid,5,0.       ! ICONT
rmod,tid,6,0.       ! PINB
rmod,tid,10,0.      ! CNOF
rmod,tid,12,0.      ! FKT
rmod,tid,36,32      ! WB DSID
rmod,cid,3,10.      ! FKN
rmod,cid,5,0.       ! ICONT
rmod,cid,6,0.       ! PINB
rmod,cid,10,0.      ! CNOF
rmod,cid,12,0.      ! FKT
rmod,cid,36,32      ! WB DSID
*set,_maxkxx,12000.
rmod,cid,14,_maxkxx/_ASMDIAG         ! TCC, Divide by Length since Traction Based
rmod,tid,14,_maxkxx/_ASMDIAG      ! TCC, Divide by Length since Traction Based
keyo,cid,1,2     ! Pure thermal contact
/com,*********** Create Contact "Contact Region 2" ***********
/com,            Real Constant Set For Above Contact Is 7 & 6 
*set,tid,7
*set,cid,6
r,tid
r,cid
et,tid,170
et,cid,174
eblock,10,,,250
(15i9)
     7941        7        7        7        0     1114      865     1116     1115     4157     4158     4689     4687
     7942        7        7        7        0     1113      874      865     1114     4185     4156     4157     4685
     7943        7        7        7        0     1112      883      874     1113     4204     4184     4185     4683
     7944        7        7        7        0     1111      892      883     1112     4223     4203     4204     4681
     7945        7        7        7        0     1110      901      892     1111     4242     4222     4223     4679
     7946        7        7        7        0     1109      910      901     1110     4261     4241     4242     4677
     7947        7        7        7        0     1108      919      910     1109     4280     4260     4261     4675
     7948        7        7        7        0     1107      928      919     1108     4299     4279     4280     4673
     7949        7        7        7        0     1106      937      928     1107     4318     4298     4299     4671
     7950        7        7        7        0     1105      946      937     1106     4337     4317     4318     4669
     7951        7        7        7        0     1104      955      946     1105     4356     4336     4337     4667
     7952        7        7        7        0     1103      964      955     1104     4375     4355     4356     4665
     7953        7        7        7        0     1102      973      964     1103     4394     4374     4375     4663
     7954        7        7        7        0     1101      982      973     1102     4413     4393     4394     4661
     7955        7        7        7        0     1100      991      982     1101     4432     4412     4413     4659
     7956        7        7        7        0     1099     1000      991     1100     4451     4431     4432     4657
     7957        7        7        7        0     1098     1009     1000     1099     4470     4450     4451     4655
     7958        7        7        7        0     1097     1018     1009     1098     4489     4469     4470     4653
     7959        7        7        7        0     1096     1027     1018     1097     4508     4488     4489     4651
     7960        7        7        7        0     1095     1036     1027     1096     4527     4507     4508     4649
! ... 231 like lines cut
eblock,10,,,250
(15i9)
     8191        6        6        6        0     1114      865     1116     1115     4157     4158     4689     4687
     8192        6        6        6        0     1113      874      865     1114     4185     4156     4157     4685
     8193        6        6        6        0     1112      883      874     1113     4204     4184     4185     4683
     8194        6        6        6        0     1111      892      883     1112     4223     4203     4204     4681
     8195        6        6        6        0     1110      901      892     1111     4242     4222     4223     4679
     8196        6        6        6        0     1109      910      901     1110     4261     4241     4242     4677
     8197        6        6        6        0     1108      919      910     1109     4280     4260     4261     4675
     8198        6        6        6        0     1107      928      919     1108     4299     4279     4280     4673
     8199        6        6        6        0     1106      937      928     1107     4318     4298     4299     4671
     8200        6        6        6        0     1105      946      937     1106     4337     4317     4318     4669
     8201        6        6        6        0     1104      955      946     1105     4356     4336     4337     4667
     8202        6        6        6        0     1103      964      955     1104     4375     4355     4356     4665
     8203        6        6        6        0     1102      973      964     1103     4394     4374     4375     4663
     8204        6        6        6        0     1101      982      973     1102     4413     4393     4394     4661
     8205        6        6        6        0     1100      991      982     1101     4432     4412     4413     4659
     8206        6        6        6        0     1099     1000      991     1100     4451     4431     4432     4657
     8207        6        6        6        0     1098     1009     1000     1099     4470     4450     4451     4655
     8208        6        6        6        0     1097     1018     1009     1098     4489     4469     4470     4653
     8209        6        6        6        0     1096     1027     1018     1097     4508     4488     4489     4651
     8210        6        6        6        0     1095     1036     1027     1096     4527     4507     4508     4649
! ... 231 like lines cut
eblock,10,,,250
(15i9)
     8441        6        7        6        0     7041     6545     7168     7042    11336    11337    12335    12333
     8442        6        7        6        0     6545     6536     7169     7168    11317    11318    12585    11337
     8443        6        7        6        0     6536     6527     7170     7169    11298    11299    12586    11318
     8444        6        7        6        0     6527     6518     7171     7170    11279    11280    12587    11299
     8445        6        7        6        0     6518     6509     7172     7171    11260    11261    12588    11280
     8446        6        7        6        0     6509     6500     7173     7172    11241    11242    12589    11261
     8447        6        7        6        0     6500     6491     7174     7173    11222    11223    12590    11242
     8448        6        7        6        0     6491     6482     7175     7174    11203    11204    12591    11223
     8449        6        7        6        0     6482     6473     7176     7175    11184    11185    12592    11204
     8450        6        7        6        0     6473     6464     7177     7176    11165    11166    12593    11185
     8451        6        7        6        0     6464     6455     7178     7177    11146    11147    12594    11166
     8452        6        7        6        0     6455     6446     7179     7178    11127    11128    12595    11147
     8453        6        7        6        0     6446     6437     7180     7179    11108    11109    12596    11128
     8454        6        7        6        0     6437     6428     7181     7180    11089    11090    12597    11109
     8455        6        7        6        0     6428     6419     7182     7181    11070    11071    12598    11090
     8456        6        7        6        0     6419     6410     7183     7182    11051    11052    12599    11071
     8457        6        7        6        0     6410     6401     7184     7183    11032    11033    12600    11052
     8458        6        7        6        0     6401     6392     7185     7184    11013    11014    12601    11033
     8459        6        7        6        0     6392     6383     7186     7185    10994    10995    12602    11014
     8460        6        7        6        0     6383     6374     7187     7186    10975    10976    12603    10995
! ... 231 like lines cut
eblock,10,,,250
(15i9)
     8691        7        6        7        0     7041     6545     7168     7042    11336    11337    12335    12333
     8692        7        6        7        0     6545     6536     7169     7168    11317    11318    12585    11337
     8693        7        6        7        0     6536     6527     7170     7169    11298    11299    12586    11318
     8694        7        6        7        0     6527     6518     7171     7170    11279    11280    12587    11299
     8695        7        6        7        0     6518     6509     7172     7171    11260    11261    12588    11280
     8696        7        6        7        0     6509     6500     7173     7172    11241    11242    12589    11261
     8697        7        6        7        0     6500     6491     7174     7173    11222    11223    12590    11242
     8698        7        6        7        0     6491     6482     7175     7174    11203    11204    12591    11223
     8699        7        6        7        0     6482     6473     7176     7175    11184    11185    12592    11204
     8700        7        6        7        0     6473     6464     7177     7176    11165    11166    12593    11185
     8701        7        6        7        0     6464     6455     7178     7177    11146    11147    12594    11166
     8702        7        6        7        0     6455     6446     7179     7178    11127    11128    12595    11147
     8703        7        6        7        0     6446     6437     7180     7179    11108    11109    12596    11128
     8704        7        6        7        0     6437     6428     7181     7180    11089    11090    12597    11109
     8705        7        6        7        0     6428     6419     7182     7181    11070    11071    12598    11090
     8706        7        6        7        0     6419     6410     7183     7182    11051    11052    12599    11071
     8707        7        6        7        0     6410     6401     7184     7183    11032    11033    12600    11052
     8708        7        6        7        0     6401     6392     7185     7184    11013    11014    12601    11033
     8709        7        6        7        0     6392     6383     7186     7185    10994    10995    12602    11014
     8710        7        6        7        0     6383     6374     7187     7186    10975    10976    12603    10995
! ... 231 like lines cut
keyo,cid,8,2               ! auto create asymmetric contact (from Program Controlled setting)
keyo,cid,10,0              ! adjust contact stiffness each NR iteration (from Program Controlled setting)
keyo,cid,12,5              ! bonded always
keyo,cid,18,1              ! small sliding turned on by application
keyo,cid,2,0               ! augmented Lagrange (from Program Controlled setting)
keyo,cid,4,0               ! on Gauss point (from Program Controlled setting)
keyo,cid,9,1               ! ignore initial gaps/penetration
keyo,cid,7,0               ! No Prediction
rmod,tid,3,10.      ! FKN
rmod,tid,5,0.       ! ICONT
rmod,tid,6,0.       ! PINB
rmod,tid,10,0.      ! CNOF
rmod,tid,12,0.      ! FKT
rmod,tid,36,35      ! WB DSID
rmod,cid,3,10.      ! FKN
rmod,cid,5,0.       ! ICONT
rmod,cid,6,0.       ! PINB
rmod,cid,10,0.      ! CNOF
rmod,cid,12,0.      ! FKT
rmod,cid,36,35      ! WB DSID
*set,_maxkxx,12000.
rmod,cid,14,_maxkxx/_ASMDIAG         ! TCC, Divide by Length since Traction Based
rmod,tid,14,_maxkxx/_ASMDIAG      ! TCC, Divide by Length since Traction Based
keyo,cid,1,2     ! Pure thermal contact
nsel,all
esel,all
/wb,contact,end            !  done creating contacts
/com,*********** Send Named Selection as Node Component ***********
CMBLOCK,HEAT_IN ,NODE,      821
(8i10)
     14009     14010     14011     14012     14013     14014     14015     14016
     14017     14018     14019     14020     14021     14022     14023     14024
     14025     14026     14027     14028     14029     14030     14031     14032
     14033     14034     14035     14036     14037     14038     14039     14040
     14041     14042     14043     14044     14045     14046     14047     14048
     14049     14050     14051     14052     14053     14054     14055     14056
     14057     14058     14059     14060     14061     14062     14063     14064
     14065     14066     14067     14068     14069     14070     14071     14072
     14073     14074     14075     14076     14077     14078     14079     14080
     14081     14082     14083     14084     14085     14086     14087     14088
     14089     14090     14091     14092     14093     14094     14095     14096
     14097     14098     14099     14100     14101     14102     14103     14104
     14105     14106     14107     14108     14109     14110     14111     14112
     14113     14114     14115     14116     14117     14118     14119     14120
     14121     14122     14123     14124     14125     14126     14127     14128
     14129     14130     14131     14132     14133     14134     14135     14136
     14137     14138     14139     14140     14141     14142     14143     14144
     14145     14146     14147     14148     14149     14150     14151     14152
     14153     14154     14155     14156     14157     14158     14159     14160
     14161     14162     14163     14164     14165     14166     14167     14168
! ... 83 like lines cut
/com,*********** Send Named Selection as Node Component ***********
CMBLOCK,HEAT_OUT,NODE,      821
(8i10)
      6546      6547      6548      6549      6550      6551      6552      6553
      6554      6555      6556      6557      6558      6559      6560      6561
      6562      6563      6564      6565      6566      6567      6568      6569
      6570      6571      6572      6573      6574      6575      6576      6577
      6578      6579      6580      6581      6582      6583      6584      6585
      6586      6587      6588      6589      6590      6591      6592      6593
      6594      6595      6596      6597      6598      6599      6600      6601
      6602      6603      6604      6605      6606      6607      6608      6609
      6610      6611      6612      6613      6614      6615      6616      6617
      6618      6619      6620      6621      6622      6623      6624      6625
      6626      6627      6628      6629      6630      6631      6632      6633
      6634      6635      6636      6637      6638      6639      6640      6641
      6642      6643      6644      6645      6646      6647      6648      6649
      6650      6651      6652      6653      6654      6655      6656      6657
      6658      6659      6660      6661      6662      6663      6664      6665
      6666      6667      6668      6669      6670      6671      6672      6673
      6674      6675      6676      6677      6678      6679      6680      6681
      6682      6683      6684      6685      6686      6687      6688      6689
      6690      6691      6692      6693      6694      6695      6696      6697
      6698      6699      6700      6701      6702      6703      6704      6705
! ... 83 like lines cut
/com,*********** Send Named Selection as Node Component ***********
CMBLOCK,INSULATING,NODE,     3990
(8i10)
      1081      1082      1083      1084      1085      1086      1087      1088
      1089      1090      1091      1092      1093      1094      1095      1096
      1097      1098      1099      1100      1101      1102      1103      1104
      1105      1106      1107      1108      1109      1110      1111      1112
      1113      1114      1115      1116      1117      1118      1119      1120
      1121      1122      1123      1124      1125      1126      1127      1128
      1129      1130      1131      1132      1133      1134      1135      1136
      1137      1138      1139      1140      1141      1142      1143      1144
      1145      1146      1147      1148      1149      1150      1151      1152
      1153      1154      1155      1156      1157      1158      1159      1160
      1161      1162      1163      1164      1165      1166      1167      1168
      1169      1170      1171      1172      1173      1174      1175      1176
      1177      1178      1179      1180      1181      1182      1183      1184
      1185      1186      1187      1188      1189      1190      1191      1192
      1193      1194      1195      1196      1197      1198      1199      1200
      1201      1202      1203      1204      1205      1206      1207      1208
      1209      1210      1211      1212      1213      1214      1215      1216
      1217      1218      1219      1220      1221      1222      1223      1224
      1225      1226      1227      1228      1229      1230      1231      1232
      1233      1234      1235      1236      1237      1238      1239      1240
! ... 479 like lines cut
/com,*********** Send Named Selection as Node Component ***********
CMBLOCK,INTER1  ,NODE,      821
(8i10)
     14225     14226     14227     14228     14229     14230     14231     14232
     14233     14234     14235     14236     14237     14238     14239     14240
     14241     14242     14243     14244     14245     14246     14247     14248
     14249     14250     14251     14252     14253     14254     14255     14256
     14257     14258     14259     14260     14261     14262     14263     14264
     14265     14266     14267     14268     14269     14270     14271     14272
     14273     14274     14275     14276     14277     14278     14279     14280
     14281     14282     14283     14284     14285     14286     14287     14288
     14289     14290     14291     14292     14293     14294     14295     14296
     14297     14298     14299     14300     14301     14302     14303     14304
     14305     14306     14307     14308     14309     14310     14311     14312
     14313     14314     14315     14316     14317     14318     14319     14320
     14321     14322     14323     14324     14325     14326     14327     14328
     14329     14330     14331     14332     14333     14334     14335     14336
     14337     14338     14339     14340     14341     14342     14343     14344
     14345     14346     14347     14348     14349     14350     14351     14352
     14353     14354     14355     14356     14357     14358     14359     14360
     14361     14362     14363     14364     14365     14366     14367     14368
     14369     14370     14371     14372     14373     14374     14375     14376
     14377     14378     14379     14380     14381     14382     14383     14384
! ... 83 like lines cut
/com,*********** Send Named Selection as Node Component ***********
CMBLOCK,INTER2  ,NODE,      821
(8i10)
       865       866       867       868       869       870       871       872
       873       874       875       876       877       878       879       880
       881       882       883       884       885       886       887       888
       889       890       891       892       893       894       895       896
       897       898       899       900       901       902       903       904
       905       906       907       908       909       910       911       912
       913       914       915       916       917       918       919       920
       921       922       923       924       925       926       927       928
       929       930       931       932       933       934       935       936
       937       938       939       940       941       942       943       944
       945       946       947       948       949       950       951       952
       953       954       955       956       957       958       959       960
       961       962       963       964       965       966       967       968
       969       970       971       972       973       974       975       976
       977       978       979       980       981       982       983       984
       985       986       987       988       989       990       991       992
       993       994       995       996       997       998       999      1000
      1001      1002      1003      1004      1005      1006      1007      1008
      1009      1010      1011      1012      1013      1014      1015      1016
      1017      1018      1019      1020      1021      1022      1023      1024
! ... 83 like lines cut
/golist
/wb,load,start             !  starting to send loads
/com,*********** Define Temperature Constraint ***********
CMBLOCK,_CM50   ,NODE,      821
(8i10)
     14009     14010     14011     14012     14013     14014     14015     14016
     14017     14018     14019     14020     14021     14022     14023     14024
     14025     14026     14027     14028     14029     14030     14031     14032
     14033     14034     14035     14036     14037     14038     14039     14040
     14041     14042     14043     14044     14045     14046     14047     14048
     14049     14050     14051     14052     14053     14054     14055     14056
     14057     14058     14059     14060     14061     14062     14063     14064
     14065     14066     14067     14068     14069     14070     14071     14072
     14073     14074     14075     14076     14077     14078     14079     14080
     14081     14082     14083     14084     14085     14086     14087     14088
     14089     14090     14091     14092     14093     14094     14095     14096
     14097     14098     14099     14100     14101     14102     14103     14104
     14105     14106     14107     14108     14109     14110     14111     14112
     14113     14114     14115     14116     14117     14118     14119     14120
     14121     14122     14123     14124     14125     14126     14127     14128
     14129     14130     14131     14132     14133     14134     14135     14136
     14137     14138     14139     14140     14141     14142     14143     14144
     14145     14146     14147     14148     14149     14150     14151     14152
     14153     14154     14155     14156     14157     14158     14159     14160
     14161     14162     14163     14164     14165     14166     14167     14168
! ... 83 like lines cut
/com,*********** Define Temperature Constraint ***********
CMBLOCK,_CM52   ,NODE,      821
(8i10)
      6546      6547      6548      6549      6550      6551      6552      6553
      6554      6555      6556      6557      6558      6559      6560      6561
      6562      6563      6564      6565      6566      6567      6568      6569
      6570      6571      6572      6573      6574      6575      6576      6577
      6578      6579      6580      6581      6582      6583      6584      6585
      6586      6587      6588      6589      6590      6591      6592      6593
      6594      6595      6596      6597      6598      6599      6600      6601
      6602      6603      6604      6605      6606      6607      6608      6609
      6610      6611      6612      6613      6614      6615      6616      6617
      6618      6619      6620      6621      6622      6623      6624      6625
      6626      6627      6628      6629      6630      6631      6632      6633
      6634      6635      6636      6637      6638      6639      6640      6641
      6642      6643      6644      6645      6646      6647      6648      6649
      6650      6651      6652      6653      6654      6655      6656      6657
      6658      6659      6660      6661      6662      6663      6664      6665
      6666      6667      6668      6669      6670      6671      6672      6673
      6674      6675      6676      6677      6678      6679      6680      6681
      6682      6683      6684      6685      6686      6687      6688      6689
      6690      6691      6692      6693      6694      6695      6696      6697
      6698      6699      6700      6701      6702      6703      6704      6705
! ... 83 like lines cut
fcum,add                   ! add nodal forces up (needed in case have loads on the same edge,vertex)
fcum                       ! reset default on fcum command since done sending WB F loads
/com,***************** Define Uniform Initial temperature ***************
tunif,22.
/gst,on,on
fini
*get,_numnode,node,0,count
*get,_numelem,elem,0,count
*get, _MAXELEMNUM, elem, 0, NUM, MAX
*get, _MAXNODENUM, node, 0, NUM, MAX
*get, _MAXELEMTYPE, etyp, 0, NUM, MAX
*get, _MAXREALCONST, real, 0, NUM, MAX
/go
/wb,load,end               !  done creating loads
/com,--- Number of total nodes = %_numnode%
/com,--- Number of contact elements = 2000
/com,--- Number of spring elements = 0
/com,--- Number of bearing elements = 0
/com,--- Number of solid elements = 4250
/com,--- Number of condensed parts = 0
/com,--- Number of total elements = %_numelem%
*get,_wallbsol,active,,time,wall
/com,****************************************************************************
/com,*************************    SOLUTION       ********************************
/com,****************************************************************************
/solu
antype,0                   ! static analysis
!eqsl,sparse               ! using sparse solver which is default so no eqsl command needed
cntr,print,1               ! print out contact info and also make no initial contact an error
rescontrol,,none                 ! Do not keep any restart files
dmpoption,emat,no             ! Don't combine emat file for DANSYS
dmpoption,esav,no             ! Don't combine esav file for DANSYS
/com,****************************************************
/com,******************* SOLVE FOR LS 1 OF 1 ****************
d,_CM50,temp,870.
d,_CM52,temp,40.
autots,on
nsub,1,10,1
time,1.
outres,erase
outres,all,none
outres,nsol,all
outres,rsol,all
outres,eangl,all
outres,veng,all
outres,fflux,all
outres,cont,all
cnvtol,heat,,.001,,1.e-006    ! Program Controlled. Set MINREF equivalent of 1e-6 Watts
! *********** WB SOLVE COMMAND ***********
! check interactive state
*get,ANSINTER_,active,,int
*if,ANSINTER_,ne,0,then
/eof
*endif
solve
/com *************** Write FE CONNECTORS ********* 
CEWRITE,file,ce,,INTE
/com,****************************************************
/com,*************** FINISHED SOLVE FOR LS 1 *************
*get,_wallasol,active,,time,wall
/post1
xmlo,ENCODING,ISO-8859-1
xmlo,parm
/xml,parm,xml
fini
/gopr
*get,_walldone,active,,time,wall
_preptime=(_wallbsol-_wallstrt)*3600
_solvtime=(_wallasol-_wallbsol)*3600
_posttime=(_walldone-_wallasol)*3600
_totaltim=(_walldone-_wallstrt)*3600
*get,_dlbratio,active,0,solu,dlbr
*get,_combtime,active,0,solu,comb
/com,--- Number of total nodes = %_numnode%
/com,--- Number of total elements = %_numelem%
/com,--- Element load balance ratio = %_dlbratio%
/com,--- Time to combine distributed files = %_combtime%
/wb,file,end               ! done with WB generated input
